@<TRIPOS>MOLECULE
HD1
   17    17     1     0     0
SMALL
RESP Charge
 
 
@<TRIPOS>ATOM
      1 N          19.0070   42.0910   15.5310 N          1 HD1      -0.789339
      2 H          18.2130   42.7010   15.6650 H          1 HD1       0.330295
      3 CA         20.1540   42.6020   14.7920 XC         1 HD1       0.386521
      4 HA         20.7000   41.7820   14.3260 H1         1 HD1       0.048927
      5 CB         19.6700   43.5550   13.6930 CT         1 HD1      -0.289996
      6 HB2        18.8240   43.1100   13.1690 HC         1 HD1       0.113028
      7 HB3        19.3670   44.5070   14.1290 HC         1 HD1       0.113028
      8 CG         20.7020   43.8700   12.6520 CC         1 HD1       0.066848
      9 ND1        20.4480   44.7240   11.5990 NA         1 HD1      -0.181636
     10 HD1        19.5680   45.1940   11.4400 H          1 HD1       0.302272
     11 CE1        21.5290   44.8230   10.8460 CR         1 HD1       0.143256
     12 HE1        21.5300   45.4560    9.9590 H5         1 HD1       0.121449
     13 NE2        22.4750   44.0650   11.3700 Y1         1 HD1      -0.435810
     14 CD2        21.9810   43.4560   12.5020 CV         1 HD1       0.005625
     15 HD2        22.6150   42.7840   13.0800 H4         1 HD1       0.084431
     16 C          21.1970   43.2940   15.6740 C          1 HD1       0.367511
     17 O          22.2780   42.7450   15.8650 O          1 HD1      -0.419184
@<TRIPOS>BOND
     1    1    2 1
     2    1    3 1
     3    3    4 1
     4    3    5 1
     5    3   16 1
     6    5    6 1
     7    5    7 1
     8    5    8 1
     9    8    9 1
    10    8   14 1
    11    9   10 1
    12    9   11 1
    13   11   12 1
    14   11   13 1
    15   13   14 1
    16   14   15 1
    17   16   17 1
@<TRIPOS>SUBSTRUCTURE
     1 HD1         1 TEMP              0 ****  ****    0 ROOT
