@<TRIPOS>MOLECULE
HD2
   17    17     1     0     0
SMALL
RESP Charge
 
 
@<TRIPOS>ATOM
      1 N          25.8350   42.5390   16.5210 N          1 HD2      -0.558080
      2 H          25.0470   42.7170   15.9150 H          1 HD2       0.244766
      3 CA         26.7920   43.6260   16.7560 XC         1 HD2       0.210442
      4 HA         27.7110   43.4550   16.1950 H1         1 HD2       0.060137
      5 CB         26.1660   44.9550   16.2850 CT         1 HD2      -0.407546
      6 HB2        25.1670   45.0400   16.7120 HC         1 HD2       0.099961
      7 HB3        26.7680   45.8090   16.5970 HC         1 HD2       0.099961
      8 CG         26.0070   45.0630   14.7970 CC         1 HD2       0.246777
      9 ND1        26.9260   45.7020   13.9920 NA         1 HD2      -0.229380
     10 HD1        27.7610   46.1600   14.3280 H          1 HD2       0.322442
     11 CE1        26.5400   45.6170   12.7270 CR         1 HD2       0.092687
     12 HE1        27.1350   46.0640   11.9310 H5         1 HD2       0.127441
     13 NE2        25.4050   44.9440   12.6860 Y2         1 HD2      -0.388959
     14 CD2        25.0490   44.5860   13.9660 CV         1 HD2      -0.122900
     15 HD2        24.1340   44.0200   14.1390 H4         1 HD2       0.150543
     16 C          27.2840   43.7890   18.2000 C          1 HD2       0.368335
     17 O          28.4810   43.7060   18.4710 O          1 HD2      -0.519166
@<TRIPOS>BOND
     1    1    2 1
     2    1    3 1
     3    3    4 1
     4    3    5 1
     5    3   16 1
     6    5    6 1
     7    5    7 1
     8    5    8 1
     9    8    9 1
    10    8   14 1
    11    9   10 1
    12    9   11 1
    13   11   12 1
    14   11   13 1
    15   13   14 1
    16   14   15 1
    17   16   17 1
@<TRIPOS>SUBSTRUCTURE
     1 HD2         1 TEMP              0 ****  ****    0 ROOT
