@<TRIPOS>MOLECULE
HD3
   17    17     1     0     0
SMALL
RESP Charge
 
 
@<TRIPOS>ATOM
      1 N          23.9310   36.6200   11.6370 N          1 HD3      -0.516073
      2 H          24.7950   36.2230   11.9780 H          1 HD3       0.292624
      3 CA         23.9300   38.0090   11.2190 XC         1 HD3       0.146887
      4 HA         23.1930   38.5630   11.8010 H1         1 HD3       0.110923
      5 CB         25.3070   38.6520   11.4320 CT         1 HD3      -0.341236
      6 HB2        25.4650   38.7270   12.5080 HC         1 HD3       0.125669
      7 HB3        26.1250   38.0880   10.9840 HC         1 HD3       0.125669
      8 CG         25.3980   40.0490   10.8850 CC         1 HD3       0.099923
      9 ND1        25.9750   40.3350    9.6660 NA         1 HD3      -0.164733
     10 HD1        26.4200   39.6520    9.0700 H          1 HD3       0.280539
     11 CE1        25.8510   41.6290    9.4110 CR         1 HD3       0.182894
     12 HE1        26.2460   42.0510    8.4870 H5         1 HD3       0.101955
     13 NE2        25.2140   42.1980   10.4230 Y3         1 HD3      -0.409312
     14 CD2        24.9230   41.2290   11.3610 CV         1 HD3      -0.140843
     15 HD2        24.4000   41.4980   12.2790 H4         1 HD3       0.162657
     16 C          23.5020   38.1420    9.7510 C          1 HD3       0.371594
     17 O          22.7440   39.0610    9.4310 O          1 HD3      -0.494968
@<TRIPOS>BOND
     1    1    2 1
     2    1    3 1
     3    3    4 1
     4    3    5 1
     5    3   16 1
     6    5    6 1
     7    5    7 1
     8    5    8 1
     9    8    9 1
    10    8   14 1
    11    9   10 1
    12    9   11 1
    13   11   12 1
    14   11   13 1
    15   13   14 1
    16   14   15 1
    17   16   17 1
@<TRIPOS>SUBSTRUCTURE
     1 HD3         1 TEMP              0 ****  ****    0 ROOT
