@<TRIPOS>MOLECULE
IE1
   20    19     1     0     0
SMALL
RESP Charge
 
 
@<TRIPOS>ATOM
      1 N          28.8490   44.8540    8.4110 N          1 IE1      -0.469871
      2 H          28.3950   44.0870    8.8850 H          1 IE1       0.258273
      3 CA         28.0350   45.9830    7.9910 CX         1 IE1      -0.200638
      4 HA         28.5290   46.9270    8.2220 H1         1 IE1       0.133436
      5 CB         27.7400   45.9110    6.4560 3C         1 IE1       0.135733
      6 HB         28.6840   45.8100    5.9200 HC         1 IE1       0.094985
      7 CG2        26.8410   44.7170    6.1330 CT         1 IE1      -0.475927
      8 HG21       25.8970   44.8170    6.6680 HC         1 IE1       0.112996
      9 HG22       26.6490   44.6860    5.0610 HC         1 IE1       0.112996
     10 HG23       27.3360   43.7950    6.4400 HC         1 IE1       0.112996
     11 CG1        27.0900   47.2170    5.9780 2C         1 IE1       0.012773
     12 HG12       27.0080   47.1550    4.8930 HC         1 IE1       0.010619
     13 HG13       26.0930   47.2570    6.4160 HC         1 IE1       0.010619
     14 CD1        27.8560   48.4650    6.3550 CT         1 IE1      -0.175994
     15 HD11       28.8530   48.4260    5.9170 HC         1 IE1       0.041445
     16 HD12       27.3290   49.3420    5.9800 HC         1 IE1       0.041445
     17 HD13       27.9380   48.5280    7.4400 HC         1 IE1       0.041445
     18 C          26.7440   45.9620    8.8170 C          1 IE1       0.858339
     19 O          26.1010   47.0310    8.9110 O2         1 IE1      -0.476547
     20 OXT        26.3780   44.8800    9.3700 Y4         1 IE1      -0.735721
@<TRIPOS>BOND
     1    1    2 1
     2    1    3 1
     3    3    4 1
     4    3    5 1
     5    3   18 1
     6    5    6 1
     7    5    7 1
     8    5   11 1
     9    7    8 1
    10    7    9 1
    11    7   10 1
    12   11   12 1
    13   11   13 1
    14   11   14 1
    15   14   15 1
    16   14   16 1
    17   14   17 1
    18   18   19 1
    19   18   20 1
@<TRIPOS>SUBSTRUCTURE
     1 IE1         1 TEMP              0 ****  ****    0 ROOT
