@<TRIPOS>MOLECULE
OH
    2     1     1     0     0
SMALL
bcc


@<TRIPOS>ATOM
      1 O           23.9400    46.2970     9.9340 o        841 OH       -1.020000
      2 H1          23.6710    47.1780     9.6300 ho       841 OH        0.020000
@<TRIPOS>BOND
     1     1     2 1   
@<TRIPOS>SUBSTRUCTURE
     1 OH          1 TEMP              0 ****  ****    0 ROOT
