@<TRIPOS>MOLECULE
LIG
   52    51     1     0     0
SMALL
bcc


@<TRIPOS>ATOM
      1 O1          -7.1640     0.1940     0.8920 oh         1 LIG      -0.612100
      2 O2          -5.9910    -0.7620    -0.8070 o          1 LIG      -0.551000
      3 C1          -1.1820     1.3130    -0.3420 c3         1 LIG      -0.082400
      4 C2          -0.0070     2.1520     0.1720 c3         1 LIG      -0.079400
      5 C3          -2.4780     1.5410     0.4400 c3         1 LIG      -0.078400
      6 C4           1.2960     1.9050    -0.5960 c3         1 LIG      -0.076400
      7 C5          -3.6150     0.6700    -0.1080 c3         1 LIG      -0.082400
      8 C6           2.4560     2.7880    -0.1220 c3         1 LIG      -0.048200
      9 C7          -4.9160     0.8500     0.6730 c3         1 LIG      -0.126400
     10 C8           2.3120    -2.2800    -0.2940 c3         1 LIG      -0.076400
     11 C9           0.8800    -2.6180     0.1310 c3         1 LIG      -0.080400
     12 C10          3.7370     2.5260    -0.8620 c2         1 LIG      -0.175200
     13 C11          3.2200    -2.0880     0.9270 c3         1 LIG      -0.048200
     14 C12         -0.0550    -2.8880    -1.0500 c3         1 LIG      -0.081400
     15 C13          4.6380     1.6050    -0.4880 c2         1 LIG      -0.159200
     16 C14          4.4770     0.7220     0.7140 c3         1 LIG      -0.024000
     17 C15          4.6670    -1.7770     0.6540 c2         1 LIG      -0.168200
     18 C16         -6.0490     0.0060     0.1410 c          1 LIG       0.635100
     19 C17          5.2360    -0.5650     0.5580 c2         1 LIG      -0.164200
     20 C18         -1.4600    -3.2930    -0.6320 c3         1 LIG      -0.096100
     21 H1          -1.3510     1.5440    -1.4010 hc         1 LIG       0.045200
     22 H2          -0.9110     0.2510    -0.2900 hc         1 LIG       0.045200
     23 H3          -0.2700     3.2150     0.1040 hc         1 LIG       0.039700
     24 H4           0.1560     1.9320     1.2340 hc         1 LIG       0.039700
     25 H5          -2.3130     1.3060     1.4980 hc         1 LIG       0.040700
     26 H6          -2.7630     2.5980     0.3820 hc         1 LIG       0.040700
     27 H7           1.1210     2.0840    -1.6640 hc         1 LIG       0.044200
     28 H8           1.5650     0.8480    -0.4980 hc         1 LIG       0.044200
     29 H9          -3.3170    -0.3850    -0.0760 hc         1 LIG       0.059200
     30 H10         -3.7860     0.9130    -1.1640 hc         1 LIG       0.059200
     31 H11          2.5980     2.6740     0.9590 hc         1 LIG       0.043700
     32 H12          2.1910     3.8420    -0.2690 hc         1 LIG       0.043700
     33 H13         -5.2270     1.9000     0.6280 hc         1 LIG       0.079700
     34 H14         -4.7530     0.5750     1.7220 hc         1 LIG       0.079700
     35 H15          2.3130    -1.3720    -0.9080 hc         1 LIG       0.043700
     36 H16          2.7110    -3.0880    -0.9200 hc         1 LIG       0.043700
     37 H17          0.8960    -3.5030     0.7790 hc         1 LIG       0.039200
     38 H18          0.4740    -1.7940     0.7310 hc         1 LIG       0.039200
     39 H19          3.9330     3.1240    -1.7470 ha         1 LIG       0.119000
     40 H20          2.7840    -1.3330     1.5910 hc         1 LIG       0.043700
     41 H21          3.2030    -3.0130     1.5200 hc         1 LIG       0.043700
     42 H22          0.3680    -3.6830    -1.6750 hc         1 LIG       0.039200
     43 H23         -0.1150    -1.9900    -1.6760 hc         1 LIG       0.039200
     44 H24          5.5510     1.5210    -1.0740 ha         1 LIG       0.121000
     45 H25          3.4240     0.5500     0.9410 hc         1 LIG       0.057200
     46 H26          4.9060     1.2450     1.5790 hc         1 LIG       0.057200
     47 H27          5.3110    -2.6430     0.5120 ha         1 LIG       0.118000
     48 H28          6.3040    -0.5060     0.3670 ha         1 LIG       0.118000
     49 H29         -1.4420    -4.2190    -0.0490 hc         1 LIG       0.035033
     50 H30         -2.0880    -3.4560    -1.5140 hc         1 LIG       0.035033
     51 H31         -1.9250    -2.5130    -0.0210 hc         1 LIG       0.035033
     52 H32         -7.9140    -0.3540     0.5760 ho         1 LIG       0.443000
@<TRIPOS>BOND
     1     1    18 1   
     2     1    52 1   
     3     2    18 2   
     4     3     4 1   
     5     3     5 1   
     6     3    21 1   
     7     3    22 1   
     8     4     6 1   
     9     4    23 1   
    10     4    24 1   
    11     5     7 1   
    12     5    25 1   
    13     5    26 1   
    14     6     8 1   
    15     6    27 1   
    16     6    28 1   
    17     7     9 1   
    18     7    29 1   
    19     7    30 1   
    20     8    12 1   
    21     8    31 1   
    22     8    32 1   
    23     9    18 1   
    24     9    33 1   
    25     9    34 1   
    26    10    11 1   
    27    10    13 1   
    28    10    35 1   
    29    10    36 1   
    30    11    14 1   
    31    11    37 1   
    32    11    38 1   
    33    12    15 2   
    34    12    39 1   
    35    13    17 1   
    36    13    40 1   
    37    13    41 1   
    38    14    20 1   
    39    14    42 1   
    40    14    43 1   
    41    15    16 1   
    42    15    44 1   
    43    16    19 1   
    44    16    45 1   
    45    16    46 1   
    46    17    19 2   
    47    17    47 1   
    48    19    48 1   
    49    20    49 1   
    50    20    50 1   
    51    20    51 1   
@<TRIPOS>SUBSTRUCTURE
     1 LIG         1 TEMP              0 ****  ****    0 ROOT
