@<TRIPOS>MOLECULE
LIG
   51    50     1     0     0
SMALL
bcc


@<TRIPOS>ATOM
      1 O1         -7.4490    0.5300    0.0990 o       1 LIG        -0.854280
      2 O2         -6.1630    0.0350   -1.6580 o       1 LIG        -0.854280
      3 C1         -1.3510    1.6100   -0.5120 c3      1 LIG        -0.080380
      4 C2         -0.1460    2.0750    0.3090 c3      1 LIG        -0.079380
      5 C3         -2.6540    1.5480    0.2890 c3      1 LIG        -0.079380
      6 C4          1.1560    2.1210   -0.4910 c3      1 LIG        -0.078380
      7 C5         -3.8510    1.0580   -0.5290 c3      1 LIG        -0.066380
      8 C6          2.3660    2.5570    0.3480 c3      1 LIG        -0.048180
      9 C7         -5.1510    0.9940    0.2660 c3      1 LIG        -0.194380
     10 C8          2.3640   -2.5050   -0.2680 c3      1 LIG        -0.076380
     11 C9          1.0860   -2.9170    0.4650 c3      1 LIG        -0.083380
     12 C10         3.6340    2.6250   -0.4620 c2      1 LIG        -0.167180
     13 C11         3.4810   -2.0470    0.6810 c3      1 LIG        -0.057180
     14 C12        -0.0310   -3.3710   -0.4760 c3      1 LIG        -0.069380
     15 C13         4.7260    1.8870   -0.3540 c2      1 LIG        -0.165180
     16 C14         5.0070    0.7700    0.6240 c3      1 LIG        -0.018980
     17 C15         4.7400   -1.6760   -0.0570 c2      1 LIG        -0.152180
     18 C16        -6.3850    0.4640   -0.5220 c       1 LIG         0.909620
     19 C17         5.3690   -0.5130   -0.0890 c2      1 LIG        -0.186180
     20 C18        -1.3060   -3.7780    0.2620 c3      1 LIG        -0.117080
     21 H1         -1.4840    2.2750   -1.3630 hc      1 LIG         0.037220
     22 H2         -1.1400    0.6260   -0.9290 hc      1 LIG         0.037220
     23 H3         -0.3500    3.0630    0.7220 hc      1 LIG         0.034220
     24 H4         -0.0170    1.4120    1.1640 hc      1 LIG         0.034220
     25 H5         -2.5100    0.8930    1.1500 hc      1 LIG         0.026720
     26 H6         -2.8680    2.5360    0.6970 hc      1 LIG         0.026720
     27 H7          1.0400    2.8000   -1.3340 hc      1 LIG         0.043720
     28 H8          1.3580    1.1410   -0.9170 hc      1 LIG         0.043720
     29 H9         -3.6410    0.0740   -0.9370 hc      1 LIG         0.043220
     30 H10        -3.9930    1.7060   -1.3910 hc      1 LIG         0.043220
     31 H11         2.4770    1.8850    1.1920 hc      1 LIG         0.040720
     32 H12         2.1670    3.5420    0.7680 hc      1 LIG         0.040720
     33 H13        -5.4050    1.9760    0.6630 hc      1 LIG         0.020220
     34 H14        -5.0240    0.3510    1.1390 hc      1 LIG         0.020220
     35 H15         2.1420   -1.7010   -0.9650 hc      1 LIG         0.033720
     36 H16         2.7230   -3.3400   -0.8680 hc      1 LIG         0.033720
     37 H17         1.3150   -3.7180    1.1660 hc      1 LIG         0.046220
     38 H18         0.7290   -2.0800    1.0630 hc      1 LIG         0.046220
     39 H19         3.6240    3.3730   -1.2420 ha      1 LIG         0.110020
     40 H20         3.1220   -1.2210    1.2840 hc      1 LIG         0.053220
     41 H21         3.7060   -2.8570    1.3750 hc      1 LIG         0.053220
     42 H22         0.3240   -4.2080   -1.0770 hc      1 LIG         0.021720
     43 H23        -0.2610   -2.5700   -1.1740 hc      1 LIG         0.021720
     44 H24         5.5300    2.0840   -1.0490 ha      1 LIG         0.110020
     45 H25         4.1730    0.6210    1.2920 hc      1 LIG         0.054220
     46 H26         5.8530    1.0620    1.2470 hc      1 LIG         0.054220
     47 H27         5.1620   -2.4770   -0.6470 ha      1 LIG         0.116020
     48 H28         6.2550   -0.4460   -0.7030 ha      1 LIG         0.110020
     49 H29        -1.1170   -4.6010    0.9460 hc      1 LIG         0.054053
     50 H30        -2.0780   -4.0910   -0.4320 hc      1 LIG         0.054053
     51 H31        -1.7040   -2.9500    0.8400 hc      1 LIG         0.054053
@<TRIPOS>BOND
     1     1    18 1   
     2     2    18 1   
     3     3     4 1   
     4     3     5 1   
     5     3    21 1   
     6     3    22 1   
     7     4     6 1   
     8     4    23 1   
     9     4    24 1   
    10     5     7 1   
    11     5    25 1   
    12     5    26 1   
    13     6     8 1   
    14     6    27 1   
    15     6    28 1   
    16     7     9 1   
    17     7    29 1   
    18     7    30 1   
    19     8    12 1   
    20     8    31 1   
    21     8    32 1   
    22     9    18 1   
    23     9    33 1   
    24     9    34 1   
    25    10    11 1   
    26    10    13 1   
    27    10    35 1   
    28    10    36 1   
    29    11    14 1   
    30    11    37 1   
    31    11    38 1   
    32    12    15 2   
    33    12    39 1   
    34    13    17 1   
    35    13    40 1   
    36    13    41 1   
    37    14    20 1   
    38    14    42 1   
    39    14    43 1   
    40    15    16 1   
    41    15    44 1   
    42    16    19 1   
    43    16    45 1   
    44    16    46 1   
    45    17    19 2   
    46    17    47 1   
    47    19    48 1   
    48    20    49 1   
    49    20    50 1   
    50    20    51 1   
@<TRIPOS>SUBSTRUCTURE
     1 LIG         1 TEMP              0 ****  ****    0 ROOT
