@<TRIPOS>MOLECULE
LIG_anion
51 50 0 0 0
SMALL
USER_CHARGES

@<TRIPOS>ATOM
      1 O1         -7.4490    0.5303    0.0988 oh      1 LIG        -0.6121
      2 O2         -6.1627    0.0348   -1.6578 o       1 LIG        -0.5510
      3 C1         -1.3508    1.6099   -0.5116 c3      1 LIG        -0.0824
      4 C2         -0.1464    2.0755    0.3095 c3      1 LIG        -0.0794
      5 C3         -2.6536    1.5476    0.2893 c3      1 LIG        -0.0784
      6 C4          1.1562    2.1214   -0.4913 c3      1 LIG        -0.0764
      7 C5         -3.8513    1.0575   -0.5295 c3      1 LIG        -0.0824
      8 C6          2.3660    2.5565    0.3481 c3      1 LIG        -0.0482
      9 C7         -5.1512    0.9935    0.2659 c3      1 LIG        -0.1264
     10 C8          2.3643   -2.5047   -0.2677 c3      1 LIG        -0.0764
     11 C9          1.0863   -2.9165    0.4645 c3      1 LIG        -0.0804
     12 C10         3.6342    2.6253   -0.4619 c2      1 LIG        -0.1752
     13 C11         3.4807   -2.0474    0.6813 c3      1 LIG        -0.0482
     14 C12        -0.0309   -3.3714   -0.4764 c3      1 LIG        -0.0814
     15 C13         4.7265    1.8869   -0.3545 c2      1 LIG        -0.1592
     16 C14         5.0071    0.7698    0.6238 c3      1 LIG        -0.0240
     17 C15         4.7400   -1.6759   -0.0571 c2      1 LIG        -0.1682
     18 C16        -6.3852    0.4642   -0.5224 c       1 LIG         0.6351
     19 C17         5.3689   -0.5127   -0.0888 c2      1 LIG        -0.1642
     20 C18        -1.3056   -3.7776    0.2616 c3      1 LIG        -0.0961
     21 H1         -1.4840    2.2754   -1.3633 hc      1 LIG         0.0452
     22 H2         -1.1401    0.6260   -0.9286 hc      1 LIG         0.0452
     23 H3         -0.3497    3.0628    0.7223 hc      1 LIG         0.0397
     24 H4         -0.0173    1.4116    1.1637 hc      1 LIG         0.0397
     25 H5         -2.5099    0.8934    1.1500 hc      1 LIG         0.0407
     26 H6         -2.8678    2.5358    0.6972 hc      1 LIG         0.0407
     27 H7          1.0400    2.8004   -1.3344 hc      1 LIG         0.0442
     28 H8          1.3580    1.1411   -0.9171 hc      1 LIG         0.0442
     29 H9         -3.6410    0.0737   -0.9372 hc      1 LIG         0.0592
     30 H10        -3.9927    1.7055   -1.3910 hc      1 LIG         0.0592
     31 H11         2.4769    1.8852    1.1923 hc      1 LIG         0.0437
     32 H12         2.1671    3.5419    0.7676 hc      1 LIG         0.0437
     33 H13        -5.4054    1.9756    0.6626 hc      1 LIG         0.0797
     34 H14        -5.0238    0.3514    1.1386 hc      1 LIG         0.0797
     35 H15         2.1421   -1.7010   -0.9653 hc      1 LIG         0.0437
     36 H16         2.7229   -3.3399   -0.8676 hc      1 LIG         0.0437
     37 H17         1.3149   -3.7181    1.1663 hc      1 LIG         0.0392
     38 H18         0.7292   -2.0802    1.0629 hc      1 LIG         0.0392
     39 H19         3.6243    3.3725   -1.2416 ha      1 LIG         0.1190
     40 H20         3.1220   -1.2208    1.2836 hc      1 LIG         0.0437
     41 H21         3.7060   -2.8575    1.3745 hc      1 LIG         0.0437
     42 H22         0.3235   -4.2079   -1.0766 hc      1 LIG         0.0392
     43 H23        -0.2614   -2.5702   -1.1744 hc      1 LIG         0.0392
     44 H24         5.5300    2.0838   -1.0486 ha      1 LIG         0.1210
     45 H25         4.1727    0.6206    1.2919 hc      1 LIG         0.0572
     46 H26         5.8534    1.0615    1.2468 hc      1 LIG         0.0572
     47 H27         5.1616   -2.4766   -0.6469 ha      1 LIG         0.1180
     48 H28         6.2546   -0.4461   -0.7029 ha      1 LIG         0.1180
     49 H29        -1.1168   -4.6013    0.9459 hc      1 LIG         0.0350
     50 H30        -2.0782   -4.0912   -0.4324 hc      1 LIG         0.0350
     51 H31        -1.7044   -2.9497    0.8396 hc      1 LIG         0.0350
@<TRIPOS>BOND
     1    1   18 1
     2    2   18 2
     3    3    4 1
     4    3    5 1
     5    3   21 1
     6    3   22 1
     7    4    6 1
     8    4   23 1
     9    4   24 1
    10    5    7 1
    11    5   25 1
    12    5   26 1
    13    6    8 1
    14    6   27 1
    15    6   28 1
    16    7    9 1
    17    7   29 1
    18    7   30 1
    19    8   12 1
    20    8   31 1
    21    8   32 1
    22    9   18 1
    23    9   33 1
    24    9   34 1
    25   10   11 1
    26   10   13 1
    27   10   35 1
    28   10   36 1
    29   11   14 1
    30   11   37 1
    31   11   38 1
    32   12   15 2
    33   12   39 1
    34   13   17 1
    35   13   40 1
    36   13   41 1
    37   14   20 1
    38   14   42 1
    39   14   43 1
    40   15   16 1
    41   15   44 1
    42   16   19 1
    43   16   45 1
    44   16   46 1
    45   17   19 2
    46   17   47 1
    47   19   48 1
    48   20   49 1
    49   20   50 1
    50   20   51 1
